03_OpenDSS_Circuits/Roxboro_Circuit_Opendss/Archive/T5240B12_VLN_Node.Txt

LINE-GROUND and LINE-LINE VOLTAGES BY BUS & NODE

Bus               Node    VLN (kV)   Angle      pu     Base kV    Node-Node   VLL (kV)  Angle      pu

T5240B12_1 ...... 1       13.748 /_   -1.7    1.0412    22.870        1-2     23.893 /_   28.1    1.0447
   -              2       13.792 /_ -122.1    1.0446    22.870        2-3     23.877 /_  -91.9     1.044
   -              3        13.82 /_  118.2    1.0466    22.870        3-1     23.867 /_  148.1    1.0436
T5240B12_1_REG .. 1       13.677 /_   -1.9    1.0358    22.870        1-2     23.696 /_   27.9    1.0361
   -              2       13.636 /_ -122.3    1.0327    22.870        2-3     23.605 /_  -92.1    1.0321
   -              3       13.662 /_  118.0    1.0347    22.870        3-1     23.669 /_  148.1    1.0349
26983094 ........ 1      0.44002 /_ -122.7  0.033325    22.870        1-2     13.201 /_   57.3   0.57721
   -              2       13.641 /_ -122.7    1.0331    22.870        2-3     13.201 /_ -122.7   0.57721
   -              3      0.44002 /_ -122.7  0.033325    22.870        3-1 1.7975E-016 /_  161.6 7.8598E-018
26983092 ........ 1      0.44004 /_ -122.7  0.033326    22.870        1-2     13.201 /_   57.3   0.57721
   -              2       13.641 /_ -122.7    1.0331    22.870        2-3     13.201 /_ -122.7   0.57721
   -              3      0.44004 /_ -122.7  0.033326    22.870        3-1 1.2711E-016 /_  153.4 5.5578E-018
25719943 ........ 1       13.425 /_   -5.5    1.0167    22.870        1-2     12.992 /_   -5.5   0.56807
   -              2      0.43315 /_   -5.4  0.032804    22.870        2-3 7.816E-017 /_  -90.0 3.4176E-018
   -              3      0.43315 /_   -5.4  0.032804    22.870        3-1     12.992 /_  174.5   0.56807
26976543 ........ 1       13.425 /_   -5.5    1.0167    22.870        1-2     12.992 /_   -5.5   0.56807
   -              2      0.43306 /_   -5.5  0.032798    22.870        2-3 2.1375E-016 /_  105.4 9.3465E-018
   -              3      0.43306 /_   -5.5  0.032798    22.870        3-1     12.992 /_  174.5   0.56807
26981034 ........ 1      0.43965 /_ -123.9  0.033297    22.870        1-2     13.188 /_   56.1   0.57666
   -              2       13.628 /_ -123.9    1.0321    22.870        2-3     13.188 /_ -123.9   0.57666
   -              3      0.43965 /_ -123.9  0.033297    22.870        3-1 5.6843E-017 /_  -90.0 2.4855E-018
103574346 ....... 1       0.4396 /_ -123.9  0.033293    22.870        1-2     13.188 /_   56.1   0.57666
   -              2       13.628 /_ -123.9    1.0321    22.870        2-3     13.188 /_ -123.9   0.57666
   -              3       0.4396 /_ -123.9  0.033293    22.870        3-1 2.2737E-016 /_  180.0 9.942E-018
26977934 ........ 1      0.43912 /_ -125.1  0.033257    22.870        1-2     13.174 /_   54.9   0.57603
   -              2       13.613 /_ -125.1     1.031    22.870        2-3     13.174 /_ -125.1   0.57603
   -              3      0.43912 /_ -125.1  0.033257    22.870        3-1 2.6204E-016 /_ -167.5 1.1458E-017
26977932 ........ 1       0.4392 /_ -125.1  0.033263    22.870        1-2     13.173 /_   54.9   0.57601
   -              2       13.613 /_ -125.1    1.0309    22.870        2-3     13.173 /_ -125.1   0.57601
   -              3       0.4392 /_ -125.1  0.033263    22.870        3-1 1.2711E-016 /_   26.6 5.5578E-018
103344435 ....... 1      0.44244 /_  116.4  0.033508    22.870        1-2 6.3553E-017 /_   63.4 2.7789E-018
   -              2      0.44244 /_  116.4  0.033508    22.870        2-3     13.271 /_  -63.7   0.58026
   -              3       13.713 /_  116.3    1.0386    22.870        3-1     13.271 /_  116.3   0.58026
26980926 ........ 1      0.44244 /_  116.4  0.033508    22.870        1-2 6.3553E-017 /_   63.4 2.7789E-018
   -              2      0.44244 /_  116.4  0.033508    22.870        2-3     13.271 /_  -63.7   0.58026
   -              3       13.713 /_  116.3    1.0386    22.870        3-1     13.271 /_  116.3   0.58026
26976581 ........ 1       13.404 /_   -5.5    1.0151    22.870        1-2     12.971 /_   -5.5   0.56717
   -              2      0.43242 /_   -5.5  0.032749    22.870        2-3 5.6843E-017 /_  180.0 2.4855E-018
   -              3      0.43242 /_   -5.5  0.032749    22.870        3-1     12.971 /_  174.5   0.56717
26976554 ........ 1       13.404 /_   -5.5    1.0151    22.870        1-2     12.971 /_   -5.5   0.56717
   -              2      0.43237 /_   -5.5  0.032746    22.870        2-3 5.7883E-005 /_ -140.5 2.531E-006
   -              3      0.43241 /_   -5.5  0.032749    22.870        3-1     12.971 /_  174.5   0.56717
26328210 ........ 1       13.668 /_   -3.9    1.0351    22.870        1-2     23.758 /_   26.1    1.0388
   -              2       13.737 /_ -124.1    1.0404    22.870        2-3     23.688 /_  -93.9    1.0358
   -              3       13.687 /_  116.4    1.0366    22.870        3-1     23.728 /_  146.2    1.0375
26979400 ........ 1       13.667 /_   -3.9    1.0351    22.870        1-2     23.757 /_   26.1    1.0388
   -              2       13.737 /_ -124.1    1.0404    22.870        2-3     23.688 /_  -93.9    1.0358
   -              3       13.687 /_  116.4    1.0366    22.870        3-1     23.728 /_  146.2    1.0375
103395456 ....... 1      0.43963 /_ -125.2  0.033295    22.870        1-2     13.189 /_   54.8    0.5767
   -              2       13.629 /_ -125.2    1.0322    22.870        2-3     13.189 /_ -125.2    0.5767
   -              3      0.43963 /_ -125.2  0.033295    22.870        3-1 2.0691E-016 /_  164.1 9.0474E-018
26977925 ........ 1      0.43972 /_ -125.1  0.033302    22.870        1-2     13.189 /_   54.8   0.57669
   -              2       13.629 /_ -125.2    1.0322    22.870        2-3     13.189 /_ -125.2   0.57669
   -              3      0.43972 /_ -125.1  0.033302    22.870        3-1 6.3553E-017 /_  -63.4 2.7789E-018
26980998 ........ 1      0.43953 /_ -124.0  0.033288    22.870        1-2     13.186 /_   56.0   0.57656
   -              2       13.625 /_ -124.0    1.0319    22.870        2-3     13.186 /_ -124.0   0.57656
   -              3      0.43953 /_ -124.0  0.033288    22.870        3-1 1.7053E-016 /_  180.0 7.4565E-018
26980996 ........ 1      0.43961 /_ -123.9  0.033294    22.870        1-2     13.186 /_   56.0   0.57656
   -              2       13.625 /_ -124.0    1.0319    22.870        2-3     13.186 /_ -124.0   0.57656
   -              3      0.43961 /_ -123.9  0.033294    22.870        3-1 6.3553E-017 /_   63.4 2.7789E-018
26983111 ........ 1       0.4417 /_  116.9  0.033452    22.870        1-2 2.6813E-016 /_ -122.0 1.1724E-017
   -              2       0.4417 /_  116.9  0.033452    22.870        2-3     13.251 /_  -63.1    0.5794
   -              3       13.693 /_  116.9     1.037    22.870        3-1     13.251 /_  116.9    0.5794
26981048 ........ 1      0.44178 /_  116.9  0.033458    22.870        1-2 1.1719E-016 /_   76.0 5.124E-018
   -              2      0.44178 /_  116.9  0.033458    22.870        2-3     13.251 /_  -63.1    0.5794
   -              3       13.693 /_  116.9     1.037    22.870        3-1     13.251 /_  116.9    0.5794
26976553 ........ 1       13.404 /_   -5.5    1.0151    22.870        1-2     12.971 /_   -5.5   0.56718
   -              2      0.43238 /_   -5.5  0.032746    22.870        2-3 2.8001E-016 /_  144.3 1.2244E-017
   -              3      0.43238 /_   -5.5  0.032746    22.870        3-1     12.971 /_  174.5   0.56718
26976580 ........ 1       13.404 /_   -5.5    1.0151    22.870        1-2     12.971 /_   -5.5   0.56717
   -              2      0.43242 /_   -5.5  0.032749    22.870        2-3 5.6843E-017 /_  180.0 2.4855E-018
   -              3      0.43242 /_   -5.5  0.032749    22.870        3-1     12.971 /_  174.5   0.56717
1713373 ......... 1      0.44022 /_ -123.9   0.03334    22.870        1-2     13.204 /_   56.1   0.57735
   -              2       13.644 /_ -123.9    1.0333    22.870        2-3     13.204 /_ -123.9   0.57735
   -              3      0.44022 /_ -123.9   0.03334    22.870        3-1 8.0389E-017 /_   45.0 3.515E-018
26980995 ........ 1      0.44022 /_ -123.9   0.03334    22.870        1-2     13.204 /_   56.1   0.57735
   -              2       13.644 /_ -123.9    1.0333    22.870        2-3     13.204 /_ -123.9   0.57735
   -              3      0.44022 /_ -123.9   0.03334    22.870        3-1 2.8422E-017 /_    0.0 1.2428E-018
26976579 ........ 1       13.404 /_   -5.5    1.0151    22.870        1-2     12.971 /_   -5.5   0.56718
   -              2      0.43238 /_   -5.5  0.032746    22.870        2-3 1.6633E-016 /_  110.0 7.273E-018
   -              3      0.43238 /_   -5.5  0.032746    22.870        3-1     12.971 /_  174.5   0.56718
26976575 ........ 1       13.404 /_   -5.5    1.0151    22.870        1-2     12.971 /_   -5.5   0.56718
   -              2      0.43237 /_   -5.5  0.032746    22.870        2-3 2.0009E-016 /_  106.5 8.749E-018
   -              3      0.43237 /_   -5.5  0.032746    22.870        3-1     12.971 /_  174.5   0.56718
26983108 ........ 1      0.44174 /_  116.9  0.033455    22.870        1-2 1.1719E-016 /_  104.0 5.124E-018
   -              2      0.44174 /_  116.9  0.033455    22.870        2-3     13.251 /_  -63.1   0.57941
   -              3       13.693 /_  116.9     1.037    22.870        3-1     13.251 /_  116.9   0.57941
26983112 ........ 1       0.4417 /_  116.9  0.033452    22.870        1-2 2.5421E-016 /_ -116.6 1.1116E-017
   -              2       0.4417 /_  116.9  0.033452    22.870        2-3     13.251 /_  -63.1    0.5794
   -              3       13.693 /_  116.9     1.037    22.870        3-1     13.251 /_  116.9    0.5794
25984423 ........ 1      0.44313 /_ -124.0   0.03356    22.870        1-2     13.291 /_   56.0   0.58116
   -              2       13.734 /_ -124.0    1.0402    22.870        2-3     13.291 /_ -124.0   0.58116
   -              3      0.44313 /_ -124.0   0.03356    22.870        3-1 5.6843E-017 /_    0.0 2.4855E-018
26981020 ........ 1      0.44312 /_ -124.0   0.03356    22.870        1-2     13.291 /_   56.0   0.58116
   -              2       13.734 /_ -124.0    1.0402    22.870        2-3     13.291 /_ -124.0   0.58116
   -              3      0.44312 /_ -124.0   0.03356    22.870        3-1 2.8422E-017 /_    0.0 1.2428E-018
26981047 ........ 1      0.44169 /_  116.9  0.033451    22.870        1-2 3.5156E-016 /_ -104.0 1.5372E-017
   -              2      0.44169 /_  116.9  0.033451    22.870        2-3     13.251 /_  -63.1    0.5794
   -              3       13.693 /_  116.9     1.037    22.870        3-1     13.251 /_  116.9    0.5794
26981044 ........ 1      0.44169 /_  116.9  0.033451    22.870        1-2 1.9066E-016 /_ -116.6 8.3366E-018
   -              2      0.44169 /_  116.9  0.033451    22.870        2-3     13.251 /_  -63.1    0.5794
   -              3       13.692 /_  116.9     1.037    22.870        3-1     13.251 /_  116.9    0.5794
103060499 ....... 1       13.658 /_   -4.4    1.0343    22.870        1-2     13.217 /_   -4.4   0.57791
   -              2      0.44065 /_   -4.4  0.033372    22.870        2-3 3.5527E-017 /_  -90.0 1.5534E-018
   -              3      0.44065 /_   -4.4  0.033372    22.870        3-1     13.217 /_  175.6   0.57791
103060502 ....... 1       13.657 /_   -4.4    1.0343    22.870        1-2     13.217 /_   -4.4   0.57791
   -              2      0.44064 /_   -4.4  0.033372    22.870        2-3 4.2633E-017 /_  -90.0 1.8641E-018
   -              3      0.44064 /_   -4.4  0.033372    22.870        3-1     13.217 /_  175.6   0.57791
1713251 ......... 1      0.44179 /_  116.5  0.033459    22.870        1-2 5.6843E-017 /_   90.0 2.4855E-018
   -              2      0.44179 /_  116.5  0.033459    22.870        2-3     13.251 /_  -63.5   0.57942
   -              3       13.693 /_  116.5     1.037    22.870        3-1     13.251 /_  116.5   0.57942
26980991 ........ 1      0.44179 /_  116.5  0.033459    22.870        1-2 6.3553E-017 /_   63.4 2.7789E-018
   -              2      0.44179 /_  116.5  0.033459    22.870        2-3     13.251 /_  -63.5   0.57942
   -              3       13.693 /_  116.5     1.037    22.870        3-1     13.251 /_  116.5   0.57942
25929746 ........ 1      0.44003 /_ -122.7  0.033325    22.870        1-2     13.201 /_   57.3   0.57721
   -              2       13.641 /_ -122.7    1.0331    22.870        2-3     13.201 /_ -122.7   0.57721
   -              3      0.44003 /_ -122.7  0.033325    22.870        3-1 1.7975E-016 /_  161.6 7.8598E-018
26983093 ........ 1      0.44002 /_ -122.7  0.033325    22.870        1-2     13.201 /_   57.3   0.57721
   -              2       13.641 /_ -122.7    1.0331    22.870        2-3     13.201 /_ -122.7   0.57721
   -              3      0.44002 /_ -122.7  0.033325    22.870        3-1 1.7975E-016 /_  161.6 7.8598E-018
1715797 ......... 2       13.655 /_ -123.4    1.0341    22.870
26981014 ........ 1      0.44056 /_ -123.4  0.033365    22.870        1-2     13.214 /_   56.6   0.57779
   -              2       13.655 /_ -123.4    1.0341    22.870        2-3     13.214 /_ -123.4   0.57779
   -              3      0.44056 /_ -123.4  0.033365    22.870        3-1 1.0248E-016 /_   33.7 4.4808E-018
103395044 ....... 1      0.43904 /_ -125.1   0.03325    22.870        1-2     13.168 /_   54.9    0.5758
   -              2       13.608 /_ -125.1    1.0306    22.870        2-3     13.168 /_ -125.1    0.5758
   -              3      0.43904 /_ -125.1   0.03325    22.870        3-1 8.5265E-017 /_  180.0 3.7283E-018
26979391 ........ 1      0.43903 /_ -125.1   0.03325    22.870        1-2     13.168 /_   54.9   0.57579
   -              2       13.607 /_ -125.1    1.0306    22.870        2-3     13.168 /_ -125.1   0.57579
   -              3      0.43903 /_ -125.1   0.03325    22.870        3-1 8.5265E-017 /_    0.0 3.7283E-018
25504842 ........ 1       13.677 /_   -3.0    1.0358    22.870        1-2     23.715 /_   26.8    1.0369
   -              2       13.654 /_ -123.4    1.0341    22.870        2-3     23.653 /_  -93.2    1.0343
   -              3       13.701 /_  116.9    1.0376    22.870        3-1     23.701 /_  147.0    1.0364
26981016 ........ 1       13.677 /_   -3.0    1.0358    22.870        1-2     23.715 /_   26.8    1.0369
   -              2       13.654 /_ -123.4    1.0341    22.870        2-3     23.653 /_  -93.2    1.0343
   -              3       13.701 /_  116.9    1.0376    22.870        3-1     23.701 /_  147.0    1.0363
1715623 ......... 1       13.679 /_   -3.4     1.036    22.870        1-2     23.722 /_   26.4    1.0373
   -              2       13.663 /_ -123.8    1.0347    22.870        2-3     23.675 /_  -93.6    1.0352
   -              3       13.713 /_  116.5    1.0385    22.870        3-1     23.711 /_  146.5    1.0368
26980939 ........ 1            0 /_    0.0         0    22.870        1-2     13.663 /_   56.2   0.59741
   -              2       13.663 /_ -123.8    1.0347    22.870        2-3     13.663 /_ -123.8   0.59741
   -              3            0 /_    0.0         0    22.870        3-1          0 /_    0.0         0
25929742 ........ 1      0.44003 /_ -122.7  0.033325    22.870        1-2     13.201 /_   57.3   0.57721
   -              2       13.641 /_ -122.7    1.0331    22.870        2-3     13.201 /_ -122.7   0.57721
   -              3      0.44003 /_ -122.7  0.033325    22.870        3-1 1.7975E-016 /_  161.6 7.8598E-018
26983091 ........ 1      0.44003 /_ -122.6  0.033326    22.870        1-2     13.201 /_   57.3   0.57721
   -              2       13.641 /_ -122.7    1.0331    22.870        2-3     13.201 /_ -122.7   0.57721
   -              3      0.44003 /_ -122.6  0.033326    22.870        3-1 2.8422E-017 /_    0.0 1.2428E-018
103345728 ....... 1       13.413 /_   -5.5    1.0158    22.870        1-2      12.98 /_   -5.5   0.56757
   -              2      0.43277 /_   -5.5  0.032775    22.870        2-3 1.0248E-016 /_  -56.3 4.4808E-018
   -              3      0.43277 /_   -5.5  0.032775    22.870        3-1      12.98 /_  174.5   0.56757
26976568 ........ 1       13.413 /_   -5.5    1.0158    22.870        1-2      12.98 /_   -5.5   0.56756
   -              2      0.43267 /_   -5.5  0.032768    22.870        2-3 2.8422E-016 /_  126.9 1.2428E-017
   -              3      0.43267 /_   -5.5  0.032768    22.870        3-1      12.98 /_  174.5   0.56756
103525992 ....... 1      0.43936 /_ -125.0  0.033275    22.870        1-2     13.178 /_   54.9   0.57622
   -              2       13.618 /_ -125.1    1.0313    22.870        2-3     13.178 /_ -125.1   0.57622
   -              3      0.43936 /_ -125.0  0.033275    22.870        3-1 6.3553E-017 /_  -63.4 2.7789E-018
103525987 ....... 1      0.43935 /_ -125.0  0.033274    22.870        1-2     13.178 /_   54.9   0.57622
   -              2       13.617 /_ -125.1    1.0313    22.870        2-3     13.178 /_ -125.1   0.57622
   -              3      0.43935 /_ -125.0  0.033274    22.870        3-1          0 /_    0.0         0
103396274 ....... 1       13.613 /_   -4.8    1.0309    22.870        1-2     13.173 /_   -4.8   0.57601
   -              2       0.4392 /_   -4.8  0.033263    22.870        2-3 1.2142E-016 /_  -20.6 5.309E-018
   -              3       0.4392 /_   -4.8  0.033263    22.870        3-1     13.173 /_  175.2   0.57601
26979392 ........ 1       13.613 /_   -4.8    1.0309    22.870        1-2     13.173 /_   -4.8   0.57601
   -              2      0.43916 /_   -4.8   0.03326    22.870        2-3 2.0691E-016 /_  -74.1 9.0474E-018
   -              3      0.43916 /_   -4.8   0.03326    22.870        3-1     13.173 /_  175.2   0.57601
103218189 ....... 1      0.43918 /_ -125.1  0.033261    22.870        1-2     13.173 /_   54.9   0.57599
   -              2       13.612 /_ -125.1    1.0309    22.870        2-3     13.173 /_ -125.1   0.57599
   -              3      0.43918 /_ -125.1  0.033261    22.870        3-1 6.3553E-017 /_  -63.4 2.7789E-018
103218190 ....... 1      0.43918 /_ -125.1  0.033261    22.870        1-2     13.173 /_   54.9   0.57599
   -              2       13.612 /_ -125.1    1.0309    22.870        2-3     13.173 /_ -125.1   0.57599
   -              3      0.43918 /_ -125.1  0.033261    22.870        3-1 5.6843E-017 /_    0.0 2.4855E-018
26983113 ........ 1      0.44102 /_  117.8  0.033401    22.870        1-2 2.8422E-017 /_    0.0 1.2428E-018
   -              2      0.44102 /_  117.8  0.033401    22.870        2-3     13.229 /_  -62.2   0.57846
   -              3        13.67 /_  117.8    1.0353    22.870        3-1     13.229 /_  117.8   0.57846
26983115 ........ 1      0.44106 /_  117.8  0.033404    22.870        1-2 1.1719E-016 /_  104.0 5.124E-018
   -              2      0.44106 /_  117.8  0.033404    22.870        2-3     13.229 /_  -62.2   0.57846
   -              3        13.67 /_  117.8    1.0353    22.870        3-1     13.229 /_  117.8   0.57846
26096018 ........ 1      0.43907 /_ -125.1  0.033252    22.870        1-2     13.169 /_   54.9   0.57584
   -              2       13.608 /_ -125.1    1.0306    22.870        2-3     13.169 /_ -125.1   0.57584
   -              3      0.43907 /_ -125.1  0.033252    22.870        3-1 8.5265E-017 /_    0.0 3.7283E-018
26979386 ........ 1      0.43906 /_ -125.1  0.033252    22.870        1-2     13.169 /_   54.9   0.57584
   -              2       13.608 /_ -125.1    1.0306    22.870        2-3     13.169 /_ -125.1   0.57584
   -              3      0.43906 /_ -125.1  0.033252    22.870        3-1 2.8422E-017 /_    0.0 1.2428E-018
26979374 ........ 1      0.44013 /_  115.6  0.033333    22.870        1-2 2.0495E-016 /_   56.3 8.9616E-018
   -              2      0.44013 /_  115.6  0.033333    22.870        2-3     13.204 /_  -64.4   0.57735
   -              3       13.644 /_  115.6    1.0333    22.870        3-1     13.204 /_  115.6   0.57735
26979378 ........ 1      0.44017 /_  115.6  0.033336    22.870        1-2 8.0389E-017 /_  -45.0 3.515E-018
   -              2      0.44017 /_  115.6  0.033336    22.870        2-3     13.204 /_  -64.4   0.57734
   -              3       13.644 /_  115.6    1.0333    22.870        3-1     13.204 /_  115.6   0.57734
103395429 ....... 1      0.43972 /_ -125.1  0.033302    22.870        1-2     13.189 /_   54.8    0.5767
   -              2       13.629 /_ -125.2    1.0322    22.870        2-3     13.189 /_ -125.2    0.5767
   -              3      0.43972 /_ -125.1  0.033302    22.870        3-1 5.6843E-017 /_  180.0 2.4855E-018
103395453 ....... 1      0.43972 /_ -125.1  0.033302    22.870        1-2     13.189 /_   54.8   0.57669
   -              2       13.629 /_ -125.2    1.0322    22.870        2-3     13.189 /_ -125.2   0.57669
   -              3      0.43972 /_ -125.1  0.033302    22.870        3-1 6.3553E-017 /_   63.4 2.7789E-018
103363736 ....... 1      0.44056 /_ -125.1  0.033366    22.870        1-2     13.214 /_   54.8    0.5778
   -              2       13.655 /_ -125.2    1.0341    22.870        2-3     13.214 /_ -125.2    0.5778
   -              3      0.44056 /_ -125.1  0.033366    22.870        3-1 2.8422E-017 /_    0.0 1.2428E-018
103363737 ....... 1      0.44055 /_ -125.1  0.033365    22.870        1-2     13.214 /_   54.8   0.57779
   -              2       13.655 /_ -125.2    1.0341    22.870        2-3     13.214 /_ -125.2   0.57779
   -              3      0.44055 /_ -125.1  0.033365    22.870        3-1 5.6843E-017 /_    0.0 2.4855E-018
26981039 ........ 1       13.628 /_   -4.1    1.0321    22.870        1-2     13.188 /_   -4.1   0.57666
   -              2      0.43961 /_   -4.1  0.033294    22.870        2-3 5.8852E-005 /_ -139.1 2.5733E-006
...
T5240B12_10000046 1       13.414 /_   -5.5    1.0159    22.870
1709176 ......... 1       13.518 /_   -5.1    1.0238    22.870
1709174 ......... 1       13.518 /_   -5.1    1.0238    22.870
1585972 ......... 1       13.415 /_   -5.5     1.016    22.870
1585892 ......... 1       13.415 /_   -5.5     1.016    22.870
1708832 ......... 3       13.641 /_  115.7    1.0331    22.870
1708804 ......... 3        13.64 /_  115.7     1.033    22.870
1585819 ......... 2       13.611 /_ -125.1    1.0308    22.870
1585817 ......... 2        13.61 /_ -125.1    1.0308    22.870
1587175 ......... 1       13.669 /_   -3.9    1.0352    22.870        1-2      23.76 /_   26.1    1.0389
   -              2       13.739 /_ -124.1    1.0405    22.870        2-3     23.691 /_  -93.9    1.0359
   -              3       13.689 /_  116.4    1.0367    22.870        3-1     23.731 /_  146.2    1.0376
1587029 ......... 1       13.669 /_   -3.9    1.0352    22.870        1-2      23.76 /_   26.1    1.0389
   -              2       13.739 /_ -124.1    1.0405    22.870        2-3      23.69 /_  -93.9    1.0359
   -              3       13.689 /_  116.4    1.0367    22.870        3-1      23.73 /_  146.2    1.0376
1715553 ......... 1       13.679 /_   -3.4     1.036    22.870        1-2     23.722 /_   26.4    1.0373
   -              2       13.663 /_ -123.8    1.0347    22.870        2-3     23.674 /_  -93.6    1.0352
   -              3       13.713 /_  116.5    1.0385    22.870        3-1     23.712 /_  146.5    1.0368
1715622 ......... 1       13.679 /_   -3.4     1.036    22.870        1-2     23.722 /_   26.4    1.0373
   -              2       13.663 /_ -123.8    1.0347    22.870        2-3     23.675 /_  -93.6    1.0352
   -              3       13.713 /_  116.5    1.0385    22.870        3-1     23.711 /_  146.5    1.0368
26400157 ........ 1      0.44031 /_ -125.1  0.033347    22.870        1-2     13.207 /_   54.9   0.57747
   -              2       13.647 /_ -125.1    1.0336    22.870        2-3     13.207 /_ -125.1   0.57747
   -              3      0.44031 /_ -125.1  0.033347    22.870        3-1 1.2711E-016 /_ -153.4 5.5578E-018
1709168 ......... 2       13.647 /_ -125.1    1.0335    22.870
1715705 ......... 2       13.626 /_ -123.9     1.032    22.870
1715703 ......... 1      0.43963 /_ -123.9  0.033295    22.870        1-2     13.186 /_   56.0   0.57658
   -              2       13.626 /_ -123.9     1.032    22.870        2-3     13.186 /_ -124.0   0.57658
   -              3      0.43963 /_ -123.9  0.033295    22.870        3-1 6.3553E-017 /_ -116.6 2.7789E-018
1599321 ......... 1       13.674 /_   -2.3    1.0356    22.870        1-2       23.7 /_   27.5    1.0363
   -              2       13.642 /_ -122.6    1.0331    22.870        2-3      23.62 /_  -92.4    1.0328
   -              3       13.677 /_  117.7    1.0358    22.870        3-1     23.681 /_  147.7    1.0355
T5240B12_10000066 1       13.674 /_   -2.3    1.0356    22.870        1-2       23.7 /_   27.5    1.0363
   -              2       13.642 /_ -122.6    1.0331    22.870        2-3      23.62 /_  -92.4    1.0328
   -              3       13.677 /_  117.7    1.0358    22.870        3-1     23.681 /_  147.7    1.0355
26401863 ........ 1       13.436 /_   -5.4    1.0176    22.870        1-2     23.448 /_   25.0    1.0253
   -              2       13.673 /_ -125.2    1.0355    22.870        2-3     13.459 /_ -126.7   0.58851
   -              3      0.42524 /_  -66.1  0.032206    22.870        3-1     13.233 /_  176.2   0.57864
1709298 ......... 1       13.436 /_   -5.4    1.0175    22.870
1709296 ......... 1       13.435 /_   -5.4    1.0175    22.870
1586248 ......... 1       13.406 /_   -5.5    1.0153    22.870
1586143 ......... 1       13.406 /_   -5.5    1.0153    22.870        1-2     12.974 /_   -5.5   0.56727
   -              2      0.43254 /_   -5.5  0.032758    22.870        2-3 1.7578E-016 /_  -14.0 7.686E-018
   -              3      0.43254 /_   -5.5  0.032758    22.870        3-1     12.974 /_  174.5   0.56727
26402844 ........ 1      0.43872 /_  115.3  0.033227    22.870        1-2 2.2198E-016 /_   50.2 9.7062E-018
   -              2      0.43872 /_  115.3  0.033227    22.870        2-3     13.162 /_  -64.7   0.57551
   -              3       13.601 /_  115.3      1.03    22.870        3-1     13.162 /_  115.3   0.57551
1586054 ......... 1      0.43877 /_  115.3   0.03323    22.870        1-2 6.3553E-017 /_   63.4 2.7789E-018
   -              2      0.43877 /_  115.3   0.03323    22.870        2-3     13.161 /_  -64.7   0.57546
   -              3       13.599 /_  115.3    1.0299    22.870        3-1     13.161 /_  115.3   0.57546
1714017 ......... 3        13.71 /_  116.6    1.0383    22.870
1714207 ......... 3        13.71 /_  116.6    1.0383    22.870
1729120 ......... 2       13.641 /_ -122.7    1.0331    22.870
1729164 ......... 2       13.641 /_ -122.7    1.0331    22.870
26376370 ........ 1       13.676 /_   -2.8    1.0357    22.870        1-2     23.713 /_   27.0    1.0369
   -              2       13.653 /_ -123.2     1.034    22.870        2-3     23.646 /_  -93.0    1.0339
   -              3       13.697 /_  117.1    1.0373    22.870        3-1     23.699 /_  147.1    1.0363
103344436 ....... 1       0.4405 /_ -123.2  0.033361    22.870        1-2     13.212 /_   56.8   0.57771
   -              2       13.653 /_ -123.2     1.034    22.870        2-3     13.212 /_ -123.2   0.57771
   -              3       0.4405 /_ -123.2  0.033361    22.870        3-1 5.6843E-017 /_    0.0 2.4855E-018
1585846 ......... 1      0.43946 /_ -125.1  0.033282    22.870        1-2     13.181 /_   54.9   0.57636
   -              2       13.621 /_ -125.1    1.0316    22.870        2-3     13.181 /_ -125.1   0.57636
   -              3      0.43946 /_ -125.1  0.033282    22.870        3-1 5.6843E-017 /_    0.0 2.4855E-018
1585804 ......... 2       13.621 /_ -125.1    1.0315    22.870
25160510 ........ 1       13.677 /_   -2.9    1.0359    22.870        1-2     23.716 /_   26.8     1.037
   -              2       13.656 /_ -123.3    1.0342    22.870        2-3     23.654 /_  -93.1    1.0343
   -              3       13.702 /_  117.0    1.0377    22.870        3-1     23.704 /_  147.0    1.0365
1715831 ......... 1       13.677 /_   -3.0    1.0358    22.870        1-2     23.716 /_   26.8     1.037
   -              2       13.656 /_ -123.3    1.0342    22.870        2-3     23.654 /_  -93.1    1.0343
   -              3       13.702 /_  117.0    1.0377    22.870        3-1     23.704 /_  147.0    1.0365
1709079 ......... 3       13.644 /_  115.7    1.0333    22.870
1709077 ......... 3       13.643 /_  115.7    1.0333    22.870
1729173 ......... 2       13.641 /_ -122.7    1.0331    22.870
1599386 ......... 1       13.672 /_   -2.6    1.0354    22.870
T5240B12_10000065 1       13.672 /_   -2.6    1.0354    22.870
26402854 ........ 1      0.43955 /_ -125.1  0.033289    22.870        1-2     13.187 /_   54.9   0.57659
   -              2       13.626 /_ -125.1     1.032    22.870        2-3     13.187 /_ -125.1   0.57659
   -              3      0.43955 /_ -125.1  0.033289    22.870        3-1 2.3437E-016 /_  166.0 1.0248E-017
25912164 ........ 2       13.626 /_ -125.1     1.032    22.870
1713308 ......... 3       13.692 /_  116.5     1.037    22.870
1713307 ......... 1      0.44177 /_  116.5  0.033457    22.870        1-2 6.3553E-017 /_ -116.6 2.7789E-018
   -              2      0.44177 /_  116.5  0.033457    22.870        2-3      13.25 /_  -63.5   0.57938
   -              3       13.692 /_  116.5     1.037    22.870        3-1      13.25 /_  116.5   0.57938
1599201 ......... 1       13.671 /_   -2.3    1.0354    22.870        1-2     23.699 /_   27.4    1.0363
   -              2       13.641 /_ -122.7    1.0331    22.870
1599472 ......... 1       13.671 /_   -2.3    1.0354    22.870        1-2     23.699 /_   27.4    1.0362
   -              2       13.641 /_ -122.7    1.0331    22.870
1710338 ......... 3       13.685 /_  116.0    1.0364    22.870
1709674 ......... 3       13.685 /_  116.0    1.0364    22.870
1729261 ......... 1       13.676 /_   -2.9    1.0358    22.870        1-2     23.714 /_   26.9    1.0369
...